WARNING: physical memory size is smaller than virtual memory size

*** ChampSim Multicore Out-of-Order Simulator ***

Warmup Instructions: 10000000
Simulation Instructions: 50000000
Number of CPUs: 1
Page size: 4096

CPU 0 Markov branch predictor	Maximum value mode enabled
Basic BTB sets: 1024 ways: 8 indirect buffer size: 4096 RAS size: 64
Off-chip DRAM Size: 4 GiB Channels: 1 Width: 64-bit Data Rate: 3200 MT/s
Heartbeat CPU 0 instructions: 10000003 cycles: 2548978 heartbeat IPC: 3.92315 cumulative IPC: 3.92315 (Simulation time: 0 hr 0 min 44 sec) 
Warmup finished CPU 0 instructions: 10000003 cycles: 2548979 cumulative IPC: 3.92315 (Simulation time: 0 hr 0 min 44 sec) 

Warmup complete CPU 0 instructions: 10000003 cycles: 2548979 (Simulation time: 0 hr 0 min 44 sec) 

Heartbeat CPU 0 instructions: 20000002 cycles: 6894814 heartbeat IPC: 2.30106 cumulative IPC: 2.30106 (Simulation time: 0 hr 1 min 56 sec) 
Heartbeat CPU 0 instructions: 30000001 cycles: 11224684 heartbeat IPC: 2.30954 cumulative IPC: 2.30529 (Simulation time: 0 hr 3 min 19 sec) 
Heartbeat CPU 0 instructions: 40000002 cycles: 15571083 heartbeat IPC: 2.30076 cumulative IPC: 2.30378 (Simulation time: 0 hr 4 min 23 sec) 
Heartbeat CPU 0 instructions: 50000002 cycles: 19890813 heartbeat IPC: 2.31496 cumulative IPC: 2.30657 (Simulation time: 0 hr 5 min 19 sec) 
Heartbeat CPU 0 instructions: 60000004 cycles: 27027521 heartbeat IPC: 1.40121 cumulative IPC: 2.04261 (Simulation time: 0 hr 6 min 42 sec) 
Simulation finished CPU 0 instructions: 50000001 cycles: 24478543 cumulative IPC: 2.04261 (Simulation time: 0 hr 6 min 42 sec) 

Simulation complete CPU 0 instructions: 50000001 cycles: 24478543 (Simulation time: 0 hr 6 min 42 sec) 


ChampSim completed all CPUs

=== Simulation ===
CPU 0 runs traces/for_measure/607.cactuBSSN_s-2421B.champsimtrace.xz

Region of Interest Statistics

CPU 0 cumulative IPC: 2.04261 instructions: 50000001 cycles: 24478543
CPU 0 Branch Prediction Accuracy: 91.6382% MPKI: 0.6882 Average ROB Occupancy at Mispredict: 179.364
Branch type MPKI
BRANCH_DIRECT_JUMP: 0.00124
BRANCH_INDIRECT: 0.00164
BRANCH_CONDITIONAL: 0.35738
BRANCH_DIRECT_CALL: 0.01318
BRANCH_INDIRECT_CALL: 6e-05
BRANCH_RETURN: 0.3147

LLC TOTAL       ACCESS:     337869  HIT:     159903  MISS:     177966
LLC LOAD         ACCESS:     274041  HIT:     123246  MISS:     150795
LLC RFO          ACCESS:      25218  HIT:        541  MISS:      24677
LLC PREFETCH     ACCESS:          0  HIT:          0  MISS:          0
LLC WRITE        ACCESS:      34968  HIT:      34950  MISS:         18
LLC TRANSLATION  ACCESS:       3642  HIT:       1166  MISS:       2476
LLC PREFETCH  REQUESTED:          0  ISSUED:          0  USEFUL:          0  USELESS:          0
LLC AVERAGE MISS LATENCY: 727.601 cycles
cpu0_DTLB TOTAL       ACCESS:   12370472  HIT:    9553799  MISS:    2816673
cpu0_DTLB LOAD         ACCESS:   12370472  HIT:    9553799  MISS:    2816673
cpu0_DTLB RFO          ACCESS:          0  HIT:          0  MISS:          0
cpu0_DTLB PREFETCH     ACCESS:          0  HIT:          0  MISS:          0
cpu0_DTLB WRITE        ACCESS:          0  HIT:          0  MISS:          0
cpu0_DTLB TRANSLATION  ACCESS:          0  HIT:          0  MISS:          0
cpu0_DTLB PREFETCH  REQUESTED:          0  ISSUED:          0  USEFUL:          0  USELESS:          0
cpu0_DTLB AVERAGE MISS LATENCY: 7.30634 cycles
cpu0_ITLB TOTAL       ACCESS:    5946715  HIT:    5946604  MISS:        111
cpu0_ITLB LOAD         ACCESS:    5946715  HIT:    5946604  MISS:        111
cpu0_ITLB RFO          ACCESS:          0  HIT:          0  MISS:          0
cpu0_ITLB PREFETCH     ACCESS:          0  HIT:          0  MISS:          0
cpu0_ITLB WRITE        ACCESS:          0  HIT:          0  MISS:          0
cpu0_ITLB TRANSLATION  ACCESS:          0  HIT:          0  MISS:          0
cpu0_ITLB PREFETCH  REQUESTED:          0  ISSUED:          0  USEFUL:          0  USELESS:          0
cpu0_ITLB AVERAGE MISS LATENCY: 221.073 cycles
cpu0_L1D TOTAL       ACCESS:   24600305  HIT:   14042197  MISS:   10558108
cpu0_L1D LOAD         ACCESS:   19371751  HIT:   10129681  MISS:    9242070
cpu0_L1D RFO          ACCESS:          0  HIT:          0  MISS:          0
cpu0_L1D PREFETCH     ACCESS:          0  HIT:          0  MISS:          0
cpu0_L1D WRITE        ACCESS:    5187745  HIT:    3912394  MISS:    1275351
cpu0_L1D TRANSLATION  ACCESS:      40809  HIT:        122  MISS:      40687
cpu0_L1D PREFETCH  REQUESTED:          0  ISSUED:          0  USEFUL:          0  USELESS:          0
cpu0_L1D AVERAGE MISS LATENCY: 17.1243 cycles
cpu0_L1I TOTAL       ACCESS:    8296683  HIT:    6494915  MISS:    1801768
cpu0_L1I LOAD         ACCESS:    8296683  HIT:    6494915  MISS:    1801768
cpu0_L1I RFO          ACCESS:          0  HIT:          0  MISS:          0
cpu0_L1I PREFETCH     ACCESS:          0  HIT:          0  MISS:          0
cpu0_L1I WRITE        ACCESS:          0  HIT:          0  MISS:          0
cpu0_L1I TRANSLATION  ACCESS:          0  HIT:          0  MISS:          0
cpu0_L1I PREFETCH  REQUESTED:          0  ISSUED:          0  USEFUL:          0  USELESS:          0
cpu0_L1I AVERAGE MISS LATENCY: 7.77966 cycles
cpu0_L2C TOTAL       ACCESS:    5380895  HIT:    5077982  MISS:     302913
cpu0_L2C LOAD         ACCESS:    4748873  HIT:    4474820  MISS:     274053
cpu0_L2C RFO          ACCESS:     318502  HIT:     293284  MISS:      25218
cpu0_L2C PREFETCH     ACCESS:          0  HIT:          0  MISS:          0
cpu0_L2C WRITE        ACCESS:     309008  HIT:     309008  MISS:          0
cpu0_L2C TRANSLATION  ACCESS:       4512  HIT:        870  MISS:       3642
cpu0_L2C PREFETCH  REQUESTED:          0  ISSUED:          0  USEFUL:          0  USELESS:          0
cpu0_L2C AVERAGE MISS LATENCY: 448.072 cycles
cpu0_STLB TOTAL       ACCESS:    2213840  HIT:    2210782  MISS:       3058
cpu0_STLB LOAD         ACCESS:    2213840  HIT:    2210782  MISS:       3058
cpu0_STLB RFO          ACCESS:          0  HIT:          0  MISS:          0
cpu0_STLB PREFETCH     ACCESS:          0  HIT:          0  MISS:          0
cpu0_STLB WRITE        ACCESS:          0  HIT:          0  MISS:          0
cpu0_STLB TRANSLATION  ACCESS:          0  HIT:          0  MISS:          0
cpu0_STLB PREFETCH  REQUESTED:          0  ISSUED:          0  USEFUL:          0  USELESS:          0
cpu0_STLB AVERAGE MISS LATENCY: 900.914 cycles

DRAM Statistics
Channel 0
 RQ ROW_BUFFER_HIT:      79464
  ROW_BUFFER_MISS:      98484
 AVG DBUS CONGESTED CYCLE:    3.96953
 WQ ROW_BUFFER_HIT:       5321
  ROW_BUFFER_MISS:      28803  FULL:          0

