WARNING: physical memory size is smaller than virtual memory size

*** ChampSim Multicore Out-of-Order Simulator ***

Warmup Instructions: 10000000
Simulation Instructions: 50000000
Number of CPUs: 1
Page size: 4096

CPU 0 Markov branch predictor	Maximum value mode enabled
Basic BTB sets: 1024 ways: 8 indirect buffer size: 4096 RAS size: 64
Off-chip DRAM Size: 4 GiB Channels: 1 Width: 64-bit Data Rate: 3200 MT/s
Heartbeat CPU 0 instructions: 10000003 cycles: 2501763 heartbeat IPC: 3.99719 cumulative IPC: 3.99719 (Simulation time: 0 hr 0 min 47 sec) 
Warmup finished CPU 0 instructions: 10000003 cycles: 2501764 cumulative IPC: 3.99719 (Simulation time: 0 hr 0 min 47 sec) 

Warmup complete CPU 0 instructions: 10000003 cycles: 2501764 (Simulation time: 0 hr 0 min 47 sec) 

Heartbeat CPU 0 instructions: 20000002 cycles: 24012100 heartbeat IPC: 0.464893 cumulative IPC: 0.464893 (Simulation time: 0 hr 2 min 23 sec) 
Heartbeat CPU 0 instructions: 30000004 cycles: 44880306 heartbeat IPC: 0.479198 cumulative IPC: 0.471937 (Simulation time: 0 hr 4 min 4 sec) 
Heartbeat CPU 0 instructions: 40000003 cycles: 65347201 heartbeat IPC: 0.488594 cumulative IPC: 0.477362 (Simulation time: 0 hr 6 min 53 sec) 
Heartbeat CPU 0 instructions: 50000000 cycles: 86463436 heartbeat IPC: 0.47357 cumulative IPC: 0.476408 (Simulation time: 0 hr 9 min 43 sec) 
Heartbeat CPU 0 instructions: 60000001 cycles: 106003348 heartbeat IPC: 0.511774 cumulative IPC: 0.483085 (Simulation time: 0 hr 12 min 20 sec) 
Simulation finished CPU 0 instructions: 50000003 cycles: 103501586 cumulative IPC: 0.483085 (Simulation time: 0 hr 12 min 20 sec) 

Simulation complete CPU 0 instructions: 50000003 cycles: 103501586 (Simulation time: 0 hr 12 min 20 sec) 


ChampSim completed all CPUs

=== Simulation ===
CPU 0 runs traces/for_measure/620.omnetpp_s-141B.champsimtrace.xz

Region of Interest Statistics

CPU 0 cumulative IPC: 0.483085 instructions: 50000003 cycles: 103501586
CPU 0 Branch Prediction Accuracy: 92.9648% MPKI: 14.8104 Average ROB Occupancy at Mispredict: 58.5544
Branch type MPKI
BRANCH_DIRECT_JUMP: 0.83684
BRANCH_INDIRECT: 0.35484
BRANCH_CONDITIONAL: 12.3149
BRANCH_DIRECT_CALL: 0.00142
BRANCH_INDIRECT_CALL: 0.85714
BRANCH_RETURN: 0.44522

LLC TOTAL       ACCESS:    1227626  HIT:     467890  MISS:     759736
LLC LOAD         ACCESS:     627852  HIT:     136167  MISS:     491685
LLC RFO          ACCESS:      89257  HIT:      30908  MISS:      58349
LLC PREFETCH     ACCESS:          0  HIT:          0  MISS:          0
LLC WRITE        ACCESS:     278454  HIT:     277721  MISS:        733
LLC TRANSLATION  ACCESS:     232063  HIT:      23094  MISS:     208969
LLC PREFETCH  REQUESTED:          0  ISSUED:          0  USEFUL:          0  USELESS:          0
LLC AVERAGE MISS LATENCY: 206.427 cycles
cpu0_DTLB TOTAL       ACCESS:   16058811  HIT:   14581853  MISS:    1476958
cpu0_DTLB LOAD         ACCESS:   16058811  HIT:   14581853  MISS:    1476958
cpu0_DTLB RFO          ACCESS:          0  HIT:          0  MISS:          0
cpu0_DTLB PREFETCH     ACCESS:          0  HIT:          0  MISS:          0
cpu0_DTLB WRITE        ACCESS:          0  HIT:          0  MISS:          0
cpu0_DTLB TRANSLATION  ACCESS:          0  HIT:          0  MISS:          0
cpu0_DTLB PREFETCH  REQUESTED:          0  ISSUED:          0  USEFUL:          0  USELESS:          0
cpu0_DTLB AVERAGE MISS LATENCY: 50.6257 cycles
cpu0_ITLB TOTAL       ACCESS:    3933117  HIT:    3811089  MISS:     122028
cpu0_ITLB LOAD         ACCESS:    3933117  HIT:    3811089  MISS:     122028
cpu0_ITLB RFO          ACCESS:          0  HIT:          0  MISS:          0
cpu0_ITLB PREFETCH     ACCESS:          0  HIT:          0  MISS:          0
cpu0_ITLB WRITE        ACCESS:          0  HIT:          0  MISS:          0
cpu0_ITLB TRANSLATION  ACCESS:          0  HIT:          0  MISS:          0
cpu0_ITLB PREFETCH  REQUESTED:          0  ISSUED:          0  USEFUL:          0  USELESS:          0
cpu0_ITLB AVERAGE MISS LATENCY: 4.90448 cycles
cpu0_L1D TOTAL       ACCESS:   20909995  HIT:   18858200  MISS:    2051795
cpu0_L1D LOAD         ACCESS:   11397790  HIT:   10026077  MISS:    1371713
cpu0_L1D RFO          ACCESS:          0  HIT:          0  MISS:          0
cpu0_L1D PREFETCH     ACCESS:          0  HIT:          0  MISS:          0
cpu0_L1D WRITE        ACCESS:    9166109  HIT:    8770685  MISS:     395424
cpu0_L1D TRANSLATION  ACCESS:     346096  HIT:      61438  MISS:     284658
cpu0_L1D PREFETCH  REQUESTED:          0  ISSUED:          0  USEFUL:          0  USELESS:          0
cpu0_L1D AVERAGE MISS LATENCY: 92.4541 cycles
cpu0_L1I TOTAL       ACCESS:    4329088  HIT:    4291239  MISS:      37849
cpu0_L1I LOAD         ACCESS:    4329088  HIT:    4291239  MISS:      37849
cpu0_L1I RFO          ACCESS:          0  HIT:          0  MISS:          0
cpu0_L1I PREFETCH     ACCESS:          0  HIT:          0  MISS:          0
cpu0_L1I WRITE        ACCESS:          0  HIT:          0  MISS:          0
cpu0_L1I TRANSLATION  ACCESS:          0  HIT:          0  MISS:          0
cpu0_L1I PREFETCH  REQUESTED:          0  ISSUED:          0  USEFUL:          0  USELESS:          0
cpu0_L1I AVERAGE MISS LATENCY: 18.5701 cycles
cpu0_L2C TOTAL       ACCESS:    1662597  HIT:     712660  MISS:     949937
cpu0_L2C LOAD         ACCESS:     881463  HIT:     253611  MISS:     627852
cpu0_L2C RFO          ACCESS:     112829  HIT:      23572  MISS:      89257
cpu0_L2C PREFETCH     ACCESS:          0  HIT:          0  MISS:          0
cpu0_L2C WRITE        ACCESS:     384000  HIT:     383235  MISS:        765
cpu0_L2C TRANSLATION  ACCESS:     284305  HIT:      52242  MISS:     232063
cpu0_L2C PREFETCH  REQUESTED:          0  ISSUED:          0  USEFUL:          0  USELESS:          0
cpu0_L2C AVERAGE MISS LATENCY: 185.882 cycles
cpu0_STLB TOTAL       ACCESS:    1084461  HIT:     839582  MISS:     244879
cpu0_STLB LOAD         ACCESS:    1084461  HIT:     839582  MISS:     244879
cpu0_STLB RFO          ACCESS:          0  HIT:          0  MISS:          0
cpu0_STLB PREFETCH     ACCESS:          0  HIT:          0  MISS:          0
cpu0_STLB WRITE        ACCESS:          0  HIT:          0  MISS:          0
cpu0_STLB TRANSLATION  ACCESS:          0  HIT:          0  MISS:          0
cpu0_STLB PREFETCH  REQUESTED:          0  ISSUED:          0  USEFUL:          0  USELESS:          0
cpu0_STLB AVERAGE MISS LATENCY: 271.258 cycles

DRAM Statistics
Channel 0
 RQ ROW_BUFFER_HIT:      54921
  ROW_BUFFER_MISS:     704016
 AVG DBUS CONGESTED CYCLE:    3.87072
 WQ ROW_BUFFER_HIT:      50838
  ROW_BUFFER_MISS:     142955  FULL:          0

