WARNING: physical memory size is smaller than virtual memory size

*** ChampSim Multicore Out-of-Order Simulator ***

Warmup Instructions: 10000000
Simulation Instructions: 50000000
Number of CPUs: 1
Page size: 4096

CPU 0 Markov branch predictor	Maximum value mode enabled
Basic BTB sets: 1024 ways: 8 indirect buffer size: 4096 RAS size: 64
Off-chip DRAM Size: 4 GiB Channels: 1 Width: 64-bit Data Rate: 3200 MT/s
Heartbeat CPU 0 instructions: 10000001 cycles: 2500048 heartbeat IPC: 3.99993 cumulative IPC: 3.99993 (Simulation time: 0 hr 0 min 21 sec) 
Warmup finished CPU 0 instructions: 10000001 cycles: 2500049 cumulative IPC: 3.99993 (Simulation time: 0 hr 0 min 21 sec) 

Warmup complete CPU 0 instructions: 10000001 cycles: 2500049 (Simulation time: 0 hr 0 min 21 sec) 

Heartbeat CPU 0 instructions: 20000002 cycles: 6117151 heartbeat IPC: 2.76465 cumulative IPC: 2.76465 (Simulation time: 0 hr 0 min 50 sec) 
Heartbeat CPU 0 instructions: 30000003 cycles: 9745010 heartbeat IPC: 2.75645 cumulative IPC: 2.76054 (Simulation time: 0 hr 1 min 19 sec) 
Heartbeat CPU 0 instructions: 40000003 cycles: 13368923 heartbeat IPC: 2.75945 cumulative IPC: 2.76018 (Simulation time: 0 hr 1 min 48 sec) 
Heartbeat CPU 0 instructions: 50000004 cycles: 16978335 heartbeat IPC: 2.77054 cumulative IPC: 2.76276 (Simulation time: 0 hr 2 min 17 sec) 
Heartbeat CPU 0 instructions: 60000002 cycles: 20559741 heartbeat IPC: 2.7922 cumulative IPC: 2.7686 (Simulation time: 0 hr 2 min 51 sec) 
Simulation finished CPU 0 instructions: 50000001 cycles: 18059693 cumulative IPC: 2.7686 (Simulation time: 0 hr 2 min 51 sec) 

Simulation complete CPU 0 instructions: 50000001 cycles: 18059693 (Simulation time: 0 hr 2 min 51 sec) 


ChampSim completed all CPUs

=== Simulation ===
CPU 0 runs traces/for_measure/625.x264_s-12B.champsimtrace.xz

Region of Interest Statistics

CPU 0 cumulative IPC: 2.7686 instructions: 50000001 cycles: 18059693
CPU 0 Branch Prediction Accuracy: 88.3753% MPKI: 5.00236 Average ROB Occupancy at Mispredict: 88.6243
Branch type MPKI
BRANCH_DIRECT_JUMP: 4e-05
BRANCH_INDIRECT: 2e-05
BRANCH_CONDITIONAL: 5.00094
BRANCH_DIRECT_CALL: 0
BRANCH_INDIRECT_CALL: 0.00136
BRANCH_RETURN: 0

LLC TOTAL       ACCESS:      11995  HIT:       3178  MISS:       8817
LLC LOAD         ACCESS:      11330  HIT:       3020  MISS:       8310
LLC RFO          ACCESS:        471  HIT:          4  MISS:        467
LLC PREFETCH     ACCESS:          0  HIT:          0  MISS:          0
LLC WRITE        ACCESS:        147  HIT:        147  MISS:          0
LLC TRANSLATION  ACCESS:         47  HIT:          7  MISS:         40
LLC PREFETCH  REQUESTED:          0  ISSUED:          0  USEFUL:          0  USELESS:          0
LLC AVERAGE MISS LATENCY: 111.806 cycles
cpu0_DTLB TOTAL       ACCESS:    8888591  HIT:    8881459  MISS:       7132
cpu0_DTLB LOAD         ACCESS:    8888591  HIT:    8881459  MISS:       7132
cpu0_DTLB RFO          ACCESS:          0  HIT:          0  MISS:          0
cpu0_DTLB PREFETCH     ACCESS:          0  HIT:          0  MISS:          0
cpu0_DTLB WRITE        ACCESS:          0  HIT:          0  MISS:          0
cpu0_DTLB TRANSLATION  ACCESS:          0  HIT:          0  MISS:          0
cpu0_DTLB PREFETCH  REQUESTED:          0  ISSUED:          0  USEFUL:          0  USELESS:          0
cpu0_DTLB AVERAGE MISS LATENCY: 9.39442 cycles
cpu0_ITLB TOTAL       ACCESS:     670210  HIT:     670210  MISS:          0
cpu0_ITLB LOAD         ACCESS:     670210  HIT:     670210  MISS:          0
cpu0_ITLB RFO          ACCESS:          0  HIT:          0  MISS:          0
cpu0_ITLB PREFETCH     ACCESS:          0  HIT:          0  MISS:          0
cpu0_ITLB WRITE        ACCESS:          0  HIT:          0  MISS:          0
cpu0_ITLB TRANSLATION  ACCESS:          0  HIT:          0  MISS:          0
cpu0_ITLB PREFETCH  REQUESTED:          0  ISSUED:          0  USEFUL:          0  USELESS:          0
cpu0_ITLB AVERAGE MISS LATENCY: -nan cycles
cpu0_L1D TOTAL       ACCESS:   11200641  HIT:   11152544  MISS:      48097
cpu0_L1D LOAD         ACCESS:    8179839  HIT:    8132399  MISS:      47440
cpu0_L1D RFO          ACCESS:          0  HIT:          0  MISS:          0
cpu0_L1D PREFETCH     ACCESS:          0  HIT:          0  MISS:          0
cpu0_L1D WRITE        ACCESS:    3020646  HIT:    3020137  MISS:        509
cpu0_L1D TRANSLATION  ACCESS:        156  HIT:          8  MISS:        148
cpu0_L1D PREFETCH  REQUESTED:          0  ISSUED:          0  USEFUL:          0  USELESS:          0
cpu0_L1D AVERAGE MISS LATENCY: 29.3458 cycles
cpu0_L1I TOTAL       ACCESS:     827799  HIT:     827796  MISS:          3
cpu0_L1I LOAD         ACCESS:     827799  HIT:     827796  MISS:          3
cpu0_L1I RFO          ACCESS:          0  HIT:          0  MISS:          0
cpu0_L1I PREFETCH     ACCESS:          0  HIT:          0  MISS:          0
cpu0_L1I WRITE        ACCESS:          0  HIT:          0  MISS:          0
cpu0_L1I TRANSLATION  ACCESS:          0  HIT:          0  MISS:          0
cpu0_L1I PREFETCH  REQUESTED:          0  ISSUED:          0  USEFUL:          0  USELESS:          0
cpu0_L1I AVERAGE MISS LATENCY: 131.334 cycles
cpu0_L2C TOTAL       ACCESS:      16783  HIT:       4934  MISS:      11849
cpu0_L2C LOAD         ACCESS:      15873  HIT:       4543  MISS:      11330
cpu0_L2C RFO          ACCESS:        474  HIT:          3  MISS:        471
cpu0_L2C PREFETCH     ACCESS:          0  HIT:          0  MISS:          0
cpu0_L2C WRITE        ACCESS:        288  HIT:        287  MISS:          1
cpu0_L2C TRANSLATION  ACCESS:        148  HIT:        101  MISS:         47
cpu0_L2C PREFETCH  REQUESTED:          0  ISSUED:          0  USEFUL:          0  USELESS:          0
cpu0_L2C AVERAGE MISS LATENCY: 103.94 cycles
cpu0_STLB TOTAL       ACCESS:       3151  HIT:       2995  MISS:        156
cpu0_STLB LOAD         ACCESS:       3151  HIT:       2995  MISS:        156
cpu0_STLB RFO          ACCESS:          0  HIT:          0  MISS:          0
cpu0_STLB PREFETCH     ACCESS:          0  HIT:          0  MISS:          0
cpu0_STLB WRITE        ACCESS:          0  HIT:          0  MISS:          0
cpu0_STLB TRANSLATION  ACCESS:          0  HIT:          0  MISS:          0
cpu0_STLB PREFETCH  REQUESTED:          0  ISSUED:          0  USEFUL:          0  USELESS:          0
cpu0_STLB AVERAGE MISS LATENCY: 266.904 cycles

DRAM Statistics
Channel 0
 RQ ROW_BUFFER_HIT:       6115
  ROW_BUFFER_MISS:       2702
 AVG DBUS CONGESTED CYCLE:    3.31507
 WQ ROW_BUFFER_HIT:          0
  ROW_BUFFER_MISS:          0  FULL:          0

