WARNING: physical memory size is smaller than virtual memory size

*** ChampSim Multicore Out-of-Order Simulator ***

Warmup Instructions: 10000000
Simulation Instructions: 50000000
Number of CPUs: 1
Page size: 4096

CPU 0 Markov branch predictor	Maximum value mode enabled
Basic BTB sets: 1024 ways: 8 indirect buffer size: 4096 RAS size: 64
Off-chip DRAM Size: 4 GiB Channels: 1 Width: 64-bit Data Rate: 3200 MT/s
Heartbeat CPU 0 instructions: 10000001 cycles: 2500063 heartbeat IPC: 3.9999 cumulative IPC: 3.9999 (Simulation time: 0 hr 0 min 45 sec) 
Warmup finished CPU 0 instructions: 10000001 cycles: 2500064 cumulative IPC: 3.9999 (Simulation time: 0 hr 0 min 45 sec) 

Warmup complete CPU 0 instructions: 10000001 cycles: 2500064 (Simulation time: 0 hr 0 min 45 sec) 

Heartbeat CPU 0 instructions: 20000003 cycles: 10390880 heartbeat IPC: 1.2673 cumulative IPC: 1.2673 (Simulation time: 0 hr 1 min 49 sec) 
Heartbeat CPU 0 instructions: 30000002 cycles: 18123280 heartbeat IPC: 1.29326 cumulative IPC: 1.28015 (Simulation time: 0 hr 3 min 11 sec) 
Heartbeat CPU 0 instructions: 40000004 cycles: 25777236 heartbeat IPC: 1.30652 cumulative IPC: 1.28882 (Simulation time: 0 hr 4 min 17 sec) 
Heartbeat CPU 0 instructions: 50000003 cycles: 33449809 heartbeat IPC: 1.30335 cumulative IPC: 1.29242 (Simulation time: 0 hr 5 min 39 sec) 
Heartbeat CPU 0 instructions: 60000004 cycles: 41225590 heartbeat IPC: 1.28605 cumulative IPC: 1.29114 (Simulation time: 0 hr 6 min 56 sec) 
Simulation finished CPU 0 instructions: 50000003 cycles: 38725527 cumulative IPC: 1.29114 (Simulation time: 0 hr 6 min 56 sec) 

Simulation complete CPU 0 instructions: 50000003 cycles: 38725527 (Simulation time: 0 hr 6 min 56 sec) 


ChampSim completed all CPUs

=== Simulation ===
CPU 0 runs traces/for_measure/631.deepsjeng_s-928B.champsimtrace.xz

Region of Interest Statistics

CPU 0 cumulative IPC: 1.29114 instructions: 50000003 cycles: 38725527
CPU 0 Branch Prediction Accuracy: 88.8198% MPKI: 16.6141 Average ROB Occupancy at Mispredict: 28.7534
Branch type MPKI
BRANCH_DIRECT_JUMP: 0.01754
BRANCH_INDIRECT: 0.01102
BRANCH_CONDITIONAL: 16.0924
BRANCH_DIRECT_CALL: 0.01738
BRANCH_INDIRECT_CALL: 0
BRANCH_RETURN: 0.47578

LLC TOTAL       ACCESS:      37292  HIT:      10147  MISS:      27145
LLC LOAD         ACCESS:      15043  HIT:        799  MISS:      14244
LLC RFO          ACCESS:        777  HIT:        424  MISS:        353
LLC PREFETCH     ACCESS:          0  HIT:          0  MISS:          0
LLC WRITE        ACCESS:       8572  HIT:       8568  MISS:          4
LLC TRANSLATION  ACCESS:      12900  HIT:        356  MISS:      12544
LLC PREFETCH  REQUESTED:          0  ISSUED:          0  USEFUL:          0  USELESS:          0
LLC AVERAGE MISS LATENCY: 122.752 cycles
cpu0_DTLB TOTAL       ACCESS:   11846809  HIT:   11791320  MISS:      55489
cpu0_DTLB LOAD         ACCESS:   11846809  HIT:   11791320  MISS:      55489
cpu0_DTLB RFO          ACCESS:          0  HIT:          0  MISS:          0
cpu0_DTLB PREFETCH     ACCESS:          0  HIT:          0  MISS:          0
cpu0_DTLB WRITE        ACCESS:          0  HIT:          0  MISS:          0
cpu0_DTLB TRANSLATION  ACCESS:          0  HIT:          0  MISS:          0
cpu0_DTLB PREFETCH  REQUESTED:          0  ISSUED:          0  USEFUL:          0  USELESS:          0
cpu0_DTLB AVERAGE MISS LATENCY: 106.907 cycles
cpu0_ITLB TOTAL       ACCESS:    3513979  HIT:    3513979  MISS:          0
cpu0_ITLB LOAD         ACCESS:    3513979  HIT:    3513979  MISS:          0
cpu0_ITLB RFO          ACCESS:          0  HIT:          0  MISS:          0
cpu0_ITLB PREFETCH     ACCESS:          0  HIT:          0  MISS:          0
cpu0_ITLB WRITE        ACCESS:          0  HIT:          0  MISS:          0
cpu0_ITLB TRANSLATION  ACCESS:          0  HIT:          0  MISS:          0
cpu0_ITLB PREFETCH  REQUESTED:          0  ISSUED:          0  USEFUL:          0  USELESS:          0
cpu0_ITLB AVERAGE MISS LATENCY: -nan cycles
cpu0_L1D TOTAL       ACCESS:   15751917  HIT:   15611738  MISS:     140179
cpu0_L1D LOAD         ACCESS:    9729691  HIT:    9649261  MISS:      80430
cpu0_L1D RFO          ACCESS:          0  HIT:          0  MISS:          0
cpu0_L1D PREFETCH     ACCESS:          0  HIT:          0  MISS:          0
cpu0_L1D WRITE        ACCESS:    6003746  HIT:    5961503  MISS:      42243
cpu0_L1D TRANSLATION  ACCESS:      18480  HIT:        974  MISS:      17506
cpu0_L1D PREFETCH  REQUESTED:          0  ISSUED:          0  USEFUL:          0  USELESS:          0
cpu0_L1D AVERAGE MISS LATENCY: 32.4687 cycles
cpu0_L1I TOTAL       ACCESS:    4156679  HIT:    4095893  MISS:      60786
cpu0_L1I LOAD         ACCESS:    4156679  HIT:    4095893  MISS:      60786
cpu0_L1I RFO          ACCESS:          0  HIT:          0  MISS:          0
cpu0_L1I PREFETCH     ACCESS:          0  HIT:          0  MISS:          0
cpu0_L1I WRITE        ACCESS:          0  HIT:          0  MISS:          0
cpu0_L1I TRANSLATION  ACCESS:          0  HIT:          0  MISS:          0
cpu0_L1I PREFETCH  REQUESTED:          0  ISSUED:          0  USEFUL:          0  USELESS:          0
cpu0_L1I AVERAGE MISS LATENCY: 7.56737 cycles
cpu0_L2C TOTAL       ACCESS:     119702  HIT:      90969  MISS:      28733
cpu0_L2C LOAD         ACCESS:      73685  HIT:      58642  MISS:      15043
cpu0_L2C RFO          ACCESS:      13475  HIT:      12698  MISS:        777
cpu0_L2C PREFETCH     ACCESS:          0  HIT:          0  MISS:          0
cpu0_L2C WRITE        ACCESS:      15084  HIT:      15071  MISS:         13
cpu0_L2C TRANSLATION  ACCESS:      17458  HIT:       4558  MISS:      12900
cpu0_L2C PREFETCH  REQUESTED:          0  ISSUED:          0  USEFUL:          0  USELESS:          0
cpu0_L2C AVERAGE MISS LATENCY: 136.903 cycles
cpu0_STLB TOTAL       ACCESS:      13740  HIT:       4600  MISS:       9140
cpu0_STLB LOAD         ACCESS:      13740  HIT:       4600  MISS:       9140
cpu0_STLB RFO          ACCESS:          0  HIT:          0  MISS:          0
cpu0_STLB PREFETCH     ACCESS:          0  HIT:          0  MISS:          0
cpu0_STLB WRITE        ACCESS:          0  HIT:          0  MISS:          0
cpu0_STLB TRANSLATION  ACCESS:          0  HIT:          0  MISS:          0
cpu0_STLB PREFETCH  REQUESTED:          0  ISSUED:          0  USEFUL:          0  USELESS:          0
cpu0_STLB AVERAGE MISS LATENCY: 636.001 cycles

DRAM Statistics
Channel 0
 RQ ROW_BUFFER_HIT:      11517
  ROW_BUFFER_MISS:      15624
 AVG DBUS CONGESTED CYCLE:    3.97107
 WQ ROW_BUFFER_HIT:         16
  ROW_BUFFER_MISS:       1192  FULL:          0

