WARNING: physical memory size is smaller than virtual memory size

*** ChampSim Multicore Out-of-Order Simulator ***

Warmup Instructions: 10000000
Simulation Instructions: 50000000
Number of CPUs: 1
Page size: 4096

CPU 0 Markov branch predictor	Maximum value mode enabled
Basic BTB sets: 1024 ways: 8 indirect buffer size: 4096 RAS size: 64
Off-chip DRAM Size: 4 GiB Channels: 1 Width: 64-bit Data Rate: 3200 MT/s
Heartbeat CPU 0 instructions: 10000001 cycles: 2500152 heartbeat IPC: 3.99976 cumulative IPC: 3.99976 (Simulation time: 0 hr 0 min 22 sec) 
Warmup finished CPU 0 instructions: 10000001 cycles: 2500153 cumulative IPC: 3.99976 (Simulation time: 0 hr 0 min 22 sec) 

Warmup complete CPU 0 instructions: 10000001 cycles: 2500153 (Simulation time: 0 hr 0 min 22 sec) 

Heartbeat CPU 0 instructions: 20000001 cycles: 8435745 heartbeat IPC: 1.68476 cumulative IPC: 1.68476 (Simulation time: 0 hr 0 min 56 sec) 
Heartbeat CPU 0 instructions: 30000001 cycles: 14483802 heartbeat IPC: 1.65343 cumulative IPC: 1.66895 (Simulation time: 0 hr 1 min 31 sec) 
Heartbeat CPU 0 instructions: 40000002 cycles: 20420576 heartbeat IPC: 1.68442 cumulative IPC: 1.67407 (Simulation time: 0 hr 2 min 6 sec) 
Heartbeat CPU 0 instructions: 50000000 cycles: 26455723 heartbeat IPC: 1.65697 cumulative IPC: 1.66976 (Simulation time: 0 hr 2 min 40 sec) 
Heartbeat CPU 0 instructions: 60000004 cycles: 32509106 heartbeat IPC: 1.65197 cumulative IPC: 1.66617 (Simulation time: 0 hr 3 min 15 sec) 
Simulation finished CPU 0 instructions: 50000003 cycles: 30008954 cumulative IPC: 1.66617 (Simulation time: 0 hr 3 min 15 sec) 

Simulation complete CPU 0 instructions: 50000003 cycles: 30008954 (Simulation time: 0 hr 3 min 15 sec) 


ChampSim completed all CPUs

=== Simulation ===
CPU 0 runs traces/for_measure/644.nab_s-12459B.champsimtrace.xz

Region of Interest Statistics

CPU 0 cumulative IPC: 1.66617 instructions: 50000003 cycles: 30008954
CPU 0 Branch Prediction Accuracy: 90.4498% MPKI: 13.6518 Average ROB Occupancy at Mispredict: 32.5858
Branch type MPKI
BRANCH_DIRECT_JUMP: 0.27594
BRANCH_INDIRECT: 0
BRANCH_CONDITIONAL: 13.3759
BRANCH_DIRECT_CALL: 0
BRANCH_INDIRECT_CALL: 0
BRANCH_RETURN: 0

LLC TOTAL       ACCESS:      34614  HIT:      25370  MISS:       9244
LLC LOAD         ACCESS:      20175  HIT:      18539  MISS:       1636
LLC RFO          ACCESS:       7607  HIT:         33  MISS:       7574
LLC PREFETCH     ACCESS:          0  HIT:          0  MISS:          0
LLC WRITE        ACCESS:       6710  HIT:       6710  MISS:          0
LLC TRANSLATION  ACCESS:        122  HIT:         88  MISS:         34
LLC PREFETCH  REQUESTED:          0  ISSUED:          0  USEFUL:          0  USELESS:          0
LLC AVERAGE MISS LATENCY: 83.4168 cycles
cpu0_DTLB TOTAL       ACCESS:   10253940  HIT:   10240531  MISS:      13409
cpu0_DTLB LOAD         ACCESS:   10253940  HIT:   10240531  MISS:      13409
cpu0_DTLB RFO          ACCESS:          0  HIT:          0  MISS:          0
cpu0_DTLB PREFETCH     ACCESS:          0  HIT:          0  MISS:          0
cpu0_DTLB WRITE        ACCESS:          0  HIT:          0  MISS:          0
cpu0_DTLB TRANSLATION  ACCESS:          0  HIT:          0  MISS:          0
cpu0_DTLB PREFETCH  REQUESTED:          0  ISSUED:          0  USEFUL:          0  USELESS:          0
cpu0_DTLB AVERAGE MISS LATENCY: 9.45448 cycles
cpu0_ITLB TOTAL       ACCESS:          0  HIT:          0  MISS:          0
cpu0_ITLB LOAD         ACCESS:          0  HIT:          0  MISS:          0
cpu0_ITLB RFO          ACCESS:          0  HIT:          0  MISS:          0
cpu0_ITLB PREFETCH     ACCESS:          0  HIT:          0  MISS:          0
cpu0_ITLB WRITE        ACCESS:          0  HIT:          0  MISS:          0
cpu0_ITLB TRANSLATION  ACCESS:          0  HIT:          0  MISS:          0
cpu0_ITLB PREFETCH  REQUESTED:          0  ISSUED:          0  USEFUL:          0  USELESS:          0
cpu0_ITLB AVERAGE MISS LATENCY: -nan cycles
cpu0_L1D TOTAL       ACCESS:   14227227  HIT:   13726428  MISS:     500799
cpu0_L1D LOAD         ACCESS:    9221112  HIT:    8855805  MISS:     365307
cpu0_L1D RFO          ACCESS:          0  HIT:          0  MISS:          0
cpu0_L1D PREFETCH     ACCESS:          0  HIT:          0  MISS:          0
cpu0_L1D WRITE        ACCESS:    5005975  HIT:    4870612  MISS:     135363
cpu0_L1D TRANSLATION  ACCESS:        140  HIT:         11  MISS:        129
cpu0_L1D PREFETCH  REQUESTED:          0  ISSUED:          0  USEFUL:          0  USELESS:          0
cpu0_L1D AVERAGE MISS LATENCY: 8.88062 cycles
cpu0_L1I TOTAL       ACCESS:          0  HIT:          0  MISS:          0
cpu0_L1I LOAD         ACCESS:          0  HIT:          0  MISS:          0
cpu0_L1I RFO          ACCESS:          0  HIT:          0  MISS:          0
cpu0_L1I PREFETCH     ACCESS:          0  HIT:          0  MISS:          0
cpu0_L1I WRITE        ACCESS:          0  HIT:          0  MISS:          0
cpu0_L1I TRANSLATION  ACCESS:          0  HIT:          0  MISS:          0
cpu0_L1I PREFETCH  REQUESTED:          0  ISSUED:          0  USEFUL:          0  USELESS:          0
cpu0_L1I AVERAGE MISS LATENCY: -nan cycles
cpu0_L2C TOTAL       ACCESS:     323607  HIT:     295699  MISS:      27908
cpu0_L2C LOAD         ACCESS:     291388  HIT:     271213  MISS:      20175
cpu0_L2C RFO          ACCESS:      16472  HIT:       8865  MISS:       7607
cpu0_L2C PREFETCH     ACCESS:          0  HIT:          0  MISS:          0
cpu0_L2C WRITE        ACCESS:      15618  HIT:      15614  MISS:          4
cpu0_L2C TRANSLATION  ACCESS:        129  HIT:          7  MISS:        122
cpu0_L2C PREFETCH  REQUESTED:          0  ISSUED:          0  USEFUL:          0  USELESS:          0
cpu0_L2C AVERAGE MISS LATENCY: 47.9604 cycles
cpu0_STLB TOTAL       ACCESS:      11017  HIT:      10877  MISS:        140
cpu0_STLB LOAD         ACCESS:      11017  HIT:      10877  MISS:        140
cpu0_STLB RFO          ACCESS:          0  HIT:          0  MISS:          0
cpu0_STLB PREFETCH     ACCESS:          0  HIT:          0  MISS:          0
cpu0_STLB WRITE        ACCESS:          0  HIT:          0  MISS:          0
cpu0_STLB TRANSLATION  ACCESS:          0  HIT:          0  MISS:          0
cpu0_STLB PREFETCH  REQUESTED:          0  ISSUED:          0  USEFUL:          0  USELESS:          0
cpu0_STLB AVERAGE MISS LATENCY: 274.993 cycles

DRAM Statistics
Channel 0
 RQ ROW_BUFFER_HIT:       7769
  ROW_BUFFER_MISS:       1475
 AVG DBUS CONGESTED CYCLE:    3.58031
 WQ ROW_BUFFER_HIT:          0
  ROW_BUFFER_MISS:          0  FULL:          0

