WARNING: physical memory size is smaller than virtual memory size

*** ChampSim Multicore Out-of-Order Simulator ***

Warmup Instructions: 10000000
Simulation Instructions: 50000000
Number of CPUs: 1
Page size: 4096

CPU 0 Bimodal branch predictor
Basic BTB sets: 1024 ways: 8 indirect buffer size: 4096 RAS size: 64
Off-chip DRAM Size: 4 GiB Channels: 1 Width: 64-bit Data Rate: 3200 MT/s
Heartbeat CPU 0 instructions: 10000003 cycles: 2500045 heartbeat IPC: 3.99993 cumulative IPC: 3.99993 (Simulation time: 0 hr 0 min 34 sec) 
Warmup finished CPU 0 instructions: 10000003 cycles: 2500046 cumulative IPC: 3.99993 (Simulation time: 0 hr 0 min 34 sec) 

Warmup complete CPU 0 instructions: 10000003 cycles: 2500046 (Simulation time: 0 hr 0 min 34 sec) 

Heartbeat CPU 0 instructions: 20000002 cycles: 10743526 heartbeat IPC: 1.21308 cumulative IPC: 1.21308 (Simulation time: 0 hr 1 min 49 sec) 
Heartbeat CPU 0 instructions: 30000000 cycles: 19034551 heartbeat IPC: 1.20613 cumulative IPC: 1.2096 (Simulation time: 0 hr 3 min 17 sec) 
Heartbeat CPU 0 instructions: 40000003 cycles: 27296231 heartbeat IPC: 1.21041 cumulative IPC: 1.20987 (Simulation time: 0 hr 5 min 8 sec) 
Heartbeat CPU 0 instructions: 50000004 cycles: 35553715 heartbeat IPC: 1.21103 cumulative IPC: 1.21016 (Simulation time: 0 hr 6 min 59 sec) 
Heartbeat CPU 0 instructions: 60000004 cycles: 43821443 heartbeat IPC: 1.20953 cumulative IPC: 1.21003 (Simulation time: 0 hr 8 min 49 sec) 
Simulation finished CPU 0 instructions: 50000001 cycles: 41321398 cumulative IPC: 1.21003 (Simulation time: 0 hr 8 min 49 sec) 

Simulation complete CPU 0 instructions: 50000001 cycles: 41321398 (Simulation time: 0 hr 8 min 49 sec) 


ChampSim completed all CPUs

=== Simulation ===
CPU 0 runs traces/for_measure/649.fotonik3d_s-1176B.champsimtrace.xz

Region of Interest Statistics

CPU 0 cumulative IPC: 1.21003 instructions: 50000001 cycles: 41321398
CPU 0 Branch Prediction Accuracy: 99.9751% MPKI: 0.00438 Average ROB Occupancy at Mispredict: 352
Branch type MPKI
BRANCH_DIRECT_JUMP: 0
BRANCH_INDIRECT: 0
BRANCH_CONDITIONAL: 0.00438
BRANCH_DIRECT_CALL: 0
BRANCH_INDIRECT_CALL: 0
BRANCH_RETURN: 0

LLC TOTAL       ACCESS:     876815  HIT:     438271  MISS:     438544
LLC LOAD         ACCESS:     438501  HIT:          7  MISS:     438494
LLC RFO          ACCESS:          0  HIT:          0  MISS:          0
LLC PREFETCH     ACCESS:          0  HIT:          0  MISS:          0
LLC WRITE        ACCESS:     438264  HIT:     438264  MISS:          0
LLC TRANSLATION  ACCESS:         50  HIT:          0  MISS:         50
LLC PREFETCH  REQUESTED:          0  ISSUED:          0  USEFUL:          0  USELESS:          0
LLC AVERAGE MISS LATENCY: 285.308 cycles
cpu0_DTLB TOTAL       ACCESS:   10208609  HIT:   10141517  MISS:      67092
cpu0_DTLB LOAD         ACCESS:   10208609  HIT:   10141517  MISS:      67092
cpu0_DTLB RFO          ACCESS:          0  HIT:          0  MISS:          0
cpu0_DTLB PREFETCH     ACCESS:          0  HIT:          0  MISS:          0
cpu0_DTLB WRITE        ACCESS:          0  HIT:          0  MISS:          0
cpu0_DTLB TRANSLATION  ACCESS:          0  HIT:          0  MISS:          0
cpu0_DTLB PREFETCH  REQUESTED:          0  ISSUED:          0  USEFUL:          0  USELESS:          0
cpu0_DTLB AVERAGE MISS LATENCY: 22.9949 cycles
cpu0_ITLB TOTAL       ACCESS:          0  HIT:          0  MISS:          0
cpu0_ITLB LOAD         ACCESS:          0  HIT:          0  MISS:          0
cpu0_ITLB RFO          ACCESS:          0  HIT:          0  MISS:          0
cpu0_ITLB PREFETCH     ACCESS:          0  HIT:          0  MISS:          0
cpu0_ITLB WRITE        ACCESS:          0  HIT:          0  MISS:          0
cpu0_ITLB TRANSLATION  ACCESS:          0  HIT:          0  MISS:          0
cpu0_ITLB PREFETCH  REQUESTED:          0  ISSUED:          0  USEFUL:          0  USELESS:          0
cpu0_ITLB AVERAGE MISS LATENCY: -nan cycles
cpu0_L1D TOTAL       ACCESS:   15657961  HIT:   13145931  MISS:    2512030
cpu0_L1D LOAD         ACCESS:   12140807  HIT:    9631685  MISS:    2509122
cpu0_L1D RFO          ACCESS:          0  HIT:          0  MISS:          0
cpu0_L1D PREFETCH     ACCESS:          0  HIT:          0  MISS:          0
cpu0_L1D WRITE        ACCESS:    3510266  HIT:    3507630  MISS:       2636
cpu0_L1D TRANSLATION  ACCESS:       6888  HIT:       6616  MISS:        272
cpu0_L1D PREFETCH  REQUESTED:          0  ISSUED:          0  USEFUL:          0  USELESS:          0
cpu0_L1D AVERAGE MISS LATENCY: 56.2969 cycles
cpu0_L1I TOTAL       ACCESS:          0  HIT:          0  MISS:          0
cpu0_L1I LOAD         ACCESS:          0  HIT:          0  MISS:          0
cpu0_L1I RFO          ACCESS:          0  HIT:          0  MISS:          0
cpu0_L1I PREFETCH     ACCESS:          0  HIT:          0  MISS:          0
cpu0_L1I WRITE        ACCESS:          0  HIT:          0  MISS:          0
cpu0_L1I TRANSLATION  ACCESS:          0  HIT:          0  MISS:          0
cpu0_L1I PREFETCH  REQUESTED:          0  ISSUED:          0  USEFUL:          0  USELESS:          0
cpu0_L1I AVERAGE MISS LATENCY: -nan cycles
cpu0_L2C TOTAL       ACCESS:    1101190  HIT:     662639  MISS:     438551
cpu0_L2C LOAD         ACCESS:     660913  HIT:     222412  MISS:     438501
cpu0_L2C RFO          ACCESS:        763  HIT:        763  MISS:          0
cpu0_L2C PREFETCH     ACCESS:          0  HIT:          0  MISS:          0
cpu0_L2C WRITE        ACCESS:     439245  HIT:     439245  MISS:          0
cpu0_L2C TRANSLATION  ACCESS:        269  HIT:        219  MISS:         50
cpu0_L2C PREFETCH  REQUESTED:          0  ISSUED:          0  USEFUL:          0  USELESS:          0
cpu0_L2C AVERAGE MISS LATENCY: 306.304 cycles
cpu0_STLB TOTAL       ACCESS:      11650  HIT:       4787  MISS:       6863
cpu0_STLB LOAD         ACCESS:      11650  HIT:       4787  MISS:       6863
cpu0_STLB RFO          ACCESS:          0  HIT:          0  MISS:          0
cpu0_STLB PREFETCH     ACCESS:          0  HIT:          0  MISS:          0
cpu0_STLB WRITE        ACCESS:          0  HIT:          0  MISS:          0
cpu0_STLB TRANSLATION  ACCESS:          0  HIT:          0  MISS:          0
cpu0_STLB PREFETCH  REQUESTED:          0  ISSUED:          0  USEFUL:          0  USELESS:          0
cpu0_STLB AVERAGE MISS LATENCY: 210.213 cycles

DRAM Statistics
Channel 0
 RQ ROW_BUFFER_HIT:      18532
  ROW_BUFFER_MISS:     420011
 AVG DBUS CONGESTED CYCLE:    3.97585
 WQ ROW_BUFFER_HIT:     137294
  ROW_BUFFER_MISS:     300918  FULL:          0

