WARNING: physical memory size is smaller than virtual memory size

*** ChampSim Multicore Out-of-Order Simulator ***

Warmup Instructions: 10000000
Simulation Instructions: 50000000
Number of CPUs: 1
Page size: 4096

CPU 0 Bimodal branch predictor
Basic BTB sets: 1024 ways: 8 indirect buffer size: 4096 RAS size: 64
Off-chip DRAM Size: 4 GiB Channels: 1 Width: 64-bit Data Rate: 3200 MT/s
Heartbeat CPU 0 instructions: 10000003 cycles: 2618958 heartbeat IPC: 3.81832 cumulative IPC: 3.81832 (Simulation time: 0 hr 0 min 32 sec) 
Warmup finished CPU 0 instructions: 10000003 cycles: 2618959 cumulative IPC: 3.81832 (Simulation time: 0 hr 0 min 32 sec) 

Warmup complete CPU 0 instructions: 10000003 cycles: 2618959 (Simulation time: 0 hr 0 min 32 sec) 

Heartbeat CPU 0 instructions: 20000004 cycles: 21814955 heartbeat IPC: 0.520942 cumulative IPC: 0.520943 (Simulation time: 0 hr 3 min 16 sec) 
Heartbeat CPU 0 instructions: 30000001 cycles: 48776317 heartbeat IPC: 0.370902 cumulative IPC: 0.433301 (Simulation time: 0 hr 6 min 1 sec) 
Heartbeat CPU 0 instructions: 40000001 cycles: 84163900 heartbeat IPC: 0.282585 cumulative IPC: 0.367896 (Simulation time: 0 hr 11 min 4 sec) 
cpu0_PTW MSHR Entry
[cpu0_PTW MSHR] entry: 0 address: ebbc30 v_address: 7fbd00b864b0 translation_level: 0 event_cycle: 18446744073709551615
[cpu0_PTW MSHR] entry: 1 address: ed5ff8 v_address: 7fbd07fff4b0 translation_level: 0 event_cycle: 18446744073709551615
[cpu0_PTW MSHR] entry: 2 address: 162568 v_address: 7fbcabcad4a8 translation_level: 1 event_cycle: 18446744073709551615
[cpu0_PTW MSHR] entry: 3 address: 162ed0 v_address: 7fbca95da4a8 translation_level: 1 event_cycle: 18446744073709551615
[cpu0_PTW MSHR] entry: 4 address: f18580 v_address: 7fbcd50b04b0 translation_level: 0 event_cycle: 18446744073709551615
[cpu0_PTW MSHR] entry: 5 address: f204b0 v_address: 7fbd7c78f4b0 translation_level: 0 event_cycle: 18446744073709551615
[cpu0_PTW MSHR] entry: 6 address: ed4868 v_address: 7fbcf970d4b0 translation_level: 0 event_cycle: 18446744073709551615
[cpu0_PTW MSHR] entry: 7 address: eb74a0 v_address: 7fbcf22944b0 translation_level: 0 event_cycle: 18446744073709551615

DEADLOCK! CPU 0 cycle 114395235
IFETCH_BUFFER head instr_id: 47174385 fetched: 2 scheduled: 0 executed: 0 num_reg_dependent: 0 num_mem_ops: 0 event: 113395272
ROB head instr_id: 47174058 fetched: 2 scheduled: 2 executed: 1 num_reg_dependent: 0 num_mem_ops: 1 event: 113395235
Load Queue Entry
[LQ] entry: 0 instr_id: 47174318 address: 7ffd9b76c2e8 fetched_issued: true event_cycle: 0
[LQ] entry: 1 instr_id: 47174078 address: 7fbd07fff4b0 fetched_issued: true event_cycle: 113395235
[LQ] entry: 2 instr_id: 47174319 address: 7fbd00b120f0 fetched_issued: true event_cycle: 0
[LQ] entry: 3 instr_id: 47174320 address: 7fbd00b12ba0 fetched_issued: true event_cycle: 0
[LQ] entry: 4 instr_id: 47174119 address: 7fbd33ad54b0 fetched_issued: true event_cycle: 113395253
[LQ] entry: 5 instr_id: 47174101 address: 7fbd5f5ab4b0 fetched_issued: true event_cycle: 113395238
[LQ] entry: 6 instr_id: 47174171 address: 7fbd00b864a0 fetched_issued: true event_cycle: 113395252
[LQ] entry: 7 instr_id: 47174084 address: 7fbcd50b04b0 fetched_issued: true event_cycle: 113395237
[LQ] entry: 8 instr_id: 47174169 address: 7ffd9b76cda8 fetched_issued: true event_cycle: 113395246
[LQ] entry: 9 instr_id: 47174089 address: 7fbcf22944b0 fetched_issued: true event_cycle: 113395236
[LQ] entry: 10 instr_id: 47174183 address: 7fbd00b864b8 fetched_issued: true event_cycle: 113395254
[LQ] entry: 11 instr_id: 47174108 address: 7fbd7c78f4b0 fetched_issued: true event_cycle: 113395253
[LQ] entry: 12 instr_id: 47174058 address: 7fbcf970d4b0 fetched_issued: true event_cycle: 113395235
[LQ] entry: 13 instr_id: 47174103 address: 7fbd581324b0 fetched_issued: true event_cycle: 113395238
[LQ] entry: 14 instr_id: 47174060 address: 7fbd00b864b0 fetched_issued: true event_cycle: 113395235
[LQ] entry: 15 instr_id: 47174185 address: 7ffd9b76c508 fetched_issued: true event_cycle: 113395255
[LQ] entry: 16 instr_id: 47174063 address: 7fbd2c65c4b0 fetched_issued: true event_cycle: 113395235
[LQ] entry: 17 instr_id: 47174065 address: 7ffd9b76d158 fetched_issued: true event_cycle: 113395228
[LQ] entry: 18 instr_id: 47174066 address: 7fbd251e34b0 fetched_issued: true event_cycle: 0
[LQ] entry: 19 instr_id: 47174068 address: 7ffd9b76d148 fetched_issued: true event_cycle: 113395228
[LQ] entry: 20 instr_id: 47174069 address: 7fbd1dd6a4b0 fetched_issued: true event_cycle: 0
[LQ] entry: 21 instr_id: 47174071 address: 7ffd9b76d138 fetched_issued: true event_cycle: 113395229
[LQ] entry: 22 instr_id: 47174072 address: 7fbd168f14b0 fetched_issued: true event_cycle: 0
[LQ] entry: 23 instr_id: 47174074 address: 7ffd9b76d128 fetched_issued: true event_cycle: 113395229
[LQ] entry: 24 instr_id: 47174075 address: 7fbd0f4784b0 fetched_issued: true event_cycle: 0
[LQ] entry: 25 instr_id: 47174081 address: 7fbcdc5294b0 fetched_issued: true event_cycle: 113395236
[LQ] entry: 26 instr_id: 47174172 address: 7fbd00b864a8 fetched_issued: true event_cycle: 113395252
[LQ] entry: 27 instr_id: 47174087 address: 7fbccdc374b0 fetched_issued: true event_cycle: 113395250
[LQ] entry: 28 instr_id: 47174091 address: 7fbceae1b4b0 fetched_issued: true event_cycle: 113395236
[LQ] entry: 29 instr_id: 47174093 address: 7fbce39a24b0 fetched_issued: true event_cycle: 113395236
[LQ] entry: 30 instr_id: 47174105 address: 7ffd9b76ced8 fetched_issued: true event_cycle: 113395234
[LQ] entry: 31 instr_id: 47174106 address: 7fbd50cb94b0 fetched_issued: true event_cycle: 0
[LQ] entry: 32 instr_id: 47174111 address: 7fbd815354b0 fetched_issued: true event_cycle: 113395253
[LQ] entry: 33 instr_id: 47174186 address: 7fbd00bc0130 fetched_issued: true event_cycle: 0
[LQ] entry: 34 instr_id: 47174173 address: 7ffd9b76c2b8 fetched_issued: true event_cycle: 113395252
[LQ] entry: 35 instr_id: 47174122 address: 7fbd498404b0 fetched_issued: true event_cycle: 113395250
[LQ] entry: 36 instr_id: 47174126 address: 7fbd423c74b0 fetched_issued: true event_cycle: 113395250
[LQ] entry: 37 instr_id: 47174129 address: 7ffd9b76d0b8 fetched_issued: true event_cycle: 113395241
[LQ] entry: 38 instr_id: 47174130 address: 7fbd3af4e4b0 fetched_issued: true event_cycle: 0
[LQ] entry: 39 instr_id: 47174135 address: 7ffd9b76cc98 fetched_issued: true event_cycle: 113395242
[LQ] entry: 40 instr_id: 47174137 address: 7ffd9b76cca0 fetched_issued: true event_cycle: 113395243
[LQ] entry: 41 instr_id: 47174157 address: 7ffd9b76ced8 fetched_issued: true event_cycle: 113395246
[LQ] entry: 42 instr_id: 47174170 address: b081f8 fetched_issued: true event_cycle: 0
[LQ] entry: 43 instr_id: 47174174 address: 7fbd00b4c830 fetched_issued: true event_cycle: 0
[LQ] entry: 44 instr_id: 47174175 address: 7ffd9b76c2c0 fetched_issued: true event_cycle: 113395254
[LQ] entry: 45 instr_id: 47174176 address: 7fbd00b85f50 fetched_issued: true event_cycle: 0
[LQ] entry: 46 instr_id: 47174181 address: b07b00 fetched_issued: true event_cycle: 0
[LQ] entry: 47 instr_id: 47174187 address: 7ffd9b76c510 fetched_issued: true event_cycle: 113395255
[LQ] entry: 48 instr_id: 47174188 address: 7fbd00b86a10 fetched_issued: true event_cycle: 0
[LQ] entry: 49 instr_id: 47174195 address: 7fbd00b864c0 fetched_issued: true event_cycle: 113395256
[LQ] entry: 50 instr_id: 47174198 address: b07f50 fetched_issued: true event_cycle: 0
[LQ] entry: 51 instr_id: 47174202 address: 7ffd9b76c450 fetched_issued: true event_cycle: 113395257
[LQ] entry: 52 instr_id: 47174203 address: 7fbd00b859e8 fetched_issued: true event_cycle: 0
[LQ] entry: 53 instr_id: 47174204 address: 7fbd00b859f0 fetched_issued: true event_cycle: 0
[LQ] entry: 54 instr_id: 47174205 address: 7ffd9b76c460 fetched_issued: true event_cycle: 113395257
[LQ] entry: 55 instr_id: 47174206 address: 7fbd00b12ba8 fetched_issued: true event_cycle: 0
[LQ] entry: 56 instr_id: 47174207 address: 7fbd00b12bb0 fetched_issued: true event_cycle: 0
[LQ] entry: 57 instr_id: 47174208 address: 7ffd9b76c518 fetched_issued: true event_cycle: 113395258
[LQ] entry: 58 instr_id: 47174209 address: 7fbd00b86f68 fetched_issued: true event_cycle: 0
[LQ] entry: 59 instr_id: 47174210 address: 7fbd00b86a08 fetched_issued: true event_cycle: 0
[LQ] entry: 60 instr_id: 47174211 address: 7ffd9b76c2b0 fetched_issued: true event_cycle: 113395258
[LQ] entry: 61 instr_id: 47174212 address: 7fbd00b85f58 fetched_issued: true event_cycle: 0
[LQ] entry: 62 instr_id: 47174213 address: b08368 fetched_issued: true event_cycle: 0
[LQ] entry: 63 instr_id: 47174215 address: 7ffd9b76c318 fetched_issued: true event_cycle: 113395259
[LQ] entry: 64 instr_id: 47174216 address: 7fbd00b85f48 fetched_issued: true event_cycle: 0
[LQ] entry: 65 instr_id: 47174218 address: 7fbd00b86a18 fetched_issued: true event_cycle: 0
[LQ] entry: 66 instr_id: 47174221 address: 7ffd9b76c278 fetched_issued: true event_cycle: 113395260
[LQ] entry: 67 instr_id: 47174222 address: 7fbd00b859f8 fetched_issued: true event_cycle: 0
[LQ] entry: 68 instr_id: 47174223 address: 7fbd00b86a00 fetched_issued: true event_cycle: 0
[LQ] entry: 69 instr_id: 47174224 address: 7ffd9b76c328 fetched_issued: true event_cycle: 113395260
[LQ] entry: 70 instr_id: 47174225 address: 7fbd00b85f60 fetched_issued: true event_cycle: 0
[LQ] entry: 71 instr_id: 47174228 address: 7ffd9b76c270 fetched_issued: true event_cycle: 113395261
[LQ] entry: 72 instr_id: 47174229 address: 7fbd00b86f78 fetched_issued: true event_cycle: 0
[LQ] entry: 73 instr_id: 47174230 address: 7ffd9b76c300 fetched_issued: true event_cycle: 113395261
[LQ] entry: 74 instr_id: 47174231 address: 7fbd00b85f40 fetched_issued: true event_cycle: 0
[LQ] entry: 75 instr_id: 47174232 address: 7fbd00b86a20 fetched_issued: true event_cycle: 0
[LQ] entry: 76 instr_id: 47174235 address: 7fbd00b859e0 fetched_issued: true event_cycle: 0
[LQ] entry: 77 instr_id: 47174236 address: 7fbd00b86f60 fetched_issued: true event_cycle: 0
[LQ] entry: 78 instr_id: 47174240 address: 7fbd00b86f70 fetched_issued: true event_cycle: 0
[LQ] entry: 79 instr_id: 47174241 address: 7ffd9b76c788 fetched_issued: true event_cycle: 113395263
[LQ] entry: 80 instr_id: 47174242 address: 7fbd00bf9db0 fetched_issued: true event_cycle: 0
[LQ] entry: 81 instr_id: 47174243 address: 7fbd00b86f80 fetched_issued: true event_cycle: 0
[LQ] entry: 82 instr_id: 47174250 address: b07ac8 fetched_issued: true event_cycle: 0
[LQ] entry: 83 instr_id: 47174253 address: b085f0 fetched_issued: true event_cycle: 0
[LQ] entry: 84 instr_id: 47174262 address: b08360 fetched_issued: true event_cycle: 0
[LQ] entry: 85 instr_id: 47174265 address: 7fbd00b85a00 fetched_issued: true event_cycle: 0
[LQ] entry: 86 instr_id: 47174270 address: 7fbd00bc0128 fetched_issued: true event_cycle: 0
[LQ] entry: 87 instr_id: 47174271 address: 7ffd9b76c310 fetched_issued: true event_cycle: 113395268
[LQ] entry: 88 instr_id: 47174272 address: 7fbd00b4c838 fetched_issued: true event_cycle: 0
[LQ] entry: 89 instr_id: 47174273 address: 7ffd9b76c268 fetched_issued: true event_cycle: 113395269
[LQ] entry: 90 instr_id: 47174274 address: 7fbd00b4c828 fetched_issued: true event_cycle: 0
[LQ] entry: 91 instr_id: 47174275 address: 7fbd00bc0138 fetched_issued: true event_cycle: 0
[LQ] entry: 92 instr_id: 47174276 address: 7ffd9b76c2d0 fetched_issued: true event_cycle: 113395269
[LQ] entry: 93 instr_id: 47174277 address: 7fbd00bf9db8 fetched_issued: true event_cycle: 0
[LQ] entry: 94 instr_id: 47174278 address: 7ffd9b76c2a8 fetched_issued: true event_cycle: 113395269
[LQ] entry: 95 instr_id: 47174279 address: 7fbd00bbfbd0 fetched_issued: true event_cycle: 0
[LQ] entry: 96 instr_id: 47174280 address: 7ffd9b76c308 fetched_issued: true event_cycle: 113395270
[LQ] entry: 97 instr_id: 47174281 address: 7fbd00b4cd90 fetched_issued: true event_cycle: 0
[LQ] entry: 98 instr_id: 47174283 address: b08600 fetched_issued: true event_cycle: 0
[LQ] entry: 99 instr_id: 47174285 address: 7ffd9b76c248 fetched_issued: true event_cycle: 113395774
[LQ] entry: 100 instr_id: 47174286 address: 7fbd00b4c2d0 fetched_issued: true event_cycle: 0
[LQ] entry: 101 instr_id: 47174287 address: 7ffd9b76c260 fetched_issued: true event_cycle: 0
[LQ] entry: 102 instr_id: 47174288 address: 7fbd00bc0690 fetched_issued: true event_cycle: 0
[LQ] entry: 103 instr_id: 47174292 address: 7ffd9b76c290 fetched_issued: true event_cycle: 0
[LQ] entry: 104 instr_id: 47174293 address: 7fbd00bf9850 fetched_issued: true event_cycle: 0
[LQ] entry: 105 instr_id: 47174294 address: 7fbd00bf9da8 fetched_issued: true event_cycle: 0
[LQ] entry: 106 instr_id: 47174295 address: 7ffd9b76c320 fetched_issued: true event_cycle: 0
[LQ] entry: 107 instr_id: 47174296 address: 7fbd00b13110 fetched_issued: true event_cycle: 0
[LQ] entry: 108 instr_id: 47174297 address: 7ffd9b76c2d8 fetched_issued: true event_cycle: 0
[LQ] entry: 109 instr_id: 47174298 address: 7fbd00b12bb8 fetched_issued: true event_cycle: 0
[LQ] entry: 110 instr_id: 47174300 address: 7ffd9b76c2f8 fetched_issued: true event_cycle: 0
[LQ] entry: 111 instr_id: 47174301 address: 7fbd00bbf670 fetched_issued: true event_cycle: 0
[LQ] entry: 112 instr_id: 47174302 address: 7fbd00bc0120 fetched_issued: true event_cycle: 0
[LQ] entry: 113 instr_id: 47174303 address: 7ffd9b76c338 fetched_issued: true event_cycle: 0
[LQ] entry: 114 instr_id: 47174304 address: 7fbd00b4d2f0 fetched_issued: true event_cycle: 0
[LQ] entry: 115 instr_id: 47174305 address: 7ffd9b76c2a0 fetched_issued: true event_cycle: 0
[LQ] entry: 116 instr_id: 47174306 address: 7fbd00b4c840 fetched_issued: true event_cycle: 0
[LQ] entry: 117 instr_id: 47174307 address: 7ffd9b76c2f0 fetched_issued: true event_cycle: 0
[LQ] entry: 118 instr_id: 47174308 address: 7fbd00b12650 fetched_issued: true event_cycle: 0
[LQ] entry: 119 instr_id: 47174309 address: 7ffd9b76c280 fetched_issued: true event_cycle: 0
[LQ] entry: 120 instr_id: 47174310 address: 7fbd00bfa310 fetched_issued: true event_cycle: 0
[LQ] entry: 121 instr_id: 47174311 address: 7ffd9b76c258 fetched_issued: true event_cycle: 0
[LQ] entry: 122 instr_id: 47174312 address: 7fbd00b4bd70 fetched_issued: true event_cycle: 0
[LQ] entry: 123 instr_id: 47174313 address: 7ffd9b76c298 fetched_issued: true event_cycle: 0
[LQ] entry: 124 instr_id: 47174314 address: 7fbd00b4c820 fetched_issued: true event_cycle: 0
[LQ] entry: 125 instr_id: 47174315 address: 7ffd9b76c2e0 fetched_issued: true event_cycle: 0
[LQ] entry: 126 instr_id: 47174316 address: 7fbd00bc0bf0 fetched_issued: true event_cycle: 0
[LQ] entry: 127 instr_id: 47174317 address: 7fbd00bc0140 fetched_issued: true event_cycle: 0

Store Queue Entry
[SQ] entry: 0 instr_id: 47174059 address: 7ffd9b76d1b8 fetched: true event_cycle: 113395226 LQ waiting: 
[SQ] entry: 1 instr_id: 47174061 address: 7ffd9b76c330 fetched: true event_cycle: 113395226 LQ waiting: 
[SQ] entry: 2 instr_id: 47174064 address: 7ffd9b76cb88 fetched: true event_cycle: 113395227 LQ waiting: 
[SQ] entry: 3 instr_id: 47174067 address: 7ffd9b76cdb8 fetched: true event_cycle: 113395227 LQ waiting: 
[SQ] entry: 4 instr_id: 47174070 address: 7ffd9b76cdc8 fetched: true event_cycle: 113395228 LQ waiting: 
[SQ] entry: 5 instr_id: 47174073 address: 7ffd9b76cb90 fetched: true event_cycle: 113395228 LQ waiting: 
[SQ] entry: 6 instr_id: 47174076 address: 7ffd9b76cdc0 fetched: true event_cycle: 113395229 LQ waiting: 
[SQ] entry: 7 instr_id: 47174079 address: 7ffd9b76cca8 fetched: true event_cycle: 113395229 LQ waiting: 
[SQ] entry: 8 instr_id: 47174082 address: 7ffd9b76d200 fetched: true event_cycle: 113395230 LQ waiting: 
[SQ] entry: 9 instr_id: 47174085 address: 7ffd9b76d210 fetched: true event_cycle: 113395230 LQ waiting: 
[SQ] entry: 10 instr_id: 47174088 address: 7ffd9b76cee0 fetched: true event_cycle: 113395231 LQ waiting: 
[SQ] entry: 11 instr_id: 47174090 address: 7ffd9b76ceb0 fetched: true event_cycle: 113395231 LQ waiting: 
[SQ] entry: 12 instr_id: 47174092 address: 7ffd9b76cea0 fetched: true event_cycle: 113395232 LQ waiting: 
[SQ] entry: 13 instr_id: 47174094 address: 7ffd9b76cb80 fetched: true event_cycle: 113395232 LQ waiting: 
[SQ] entry: 14 instr_id: 47174097 address: 7ffd9b76c740 fetched: true event_cycle: 113395712 LQ waiting: 
[SQ] entry: 15 instr_id: 47174100 address: 7ffd9b76c750 fetched: true event_cycle: 113395773 LQ waiting: 
[SQ] entry: 16 instr_id: 47174102 address: 7ffd9b76c570 fetched: true event_cycle: 113395234 LQ waiting: 
[SQ] entry: 17 instr_id: 47174104 address: 7ffd9b76c6f0 fetched: true event_cycle: 113395234 LQ waiting: 
[SQ] entry: 18 instr_id: 47174109 address: 7ffd9b76cc30 fetched: true event_cycle: 113395235 LQ waiting: 
[SQ] entry: 19 instr_id: 47174112 address: 7ffd9b76cef8 fetched: true event_cycle: 113395235 LQ waiting: 
[SQ] entry: 20 instr_id: 47174120 address: 7ffd9b76cdb0 fetched: true event_cycle: 113395236 LQ waiting: 
[SQ] entry: 21 instr_id: 47174123 address: 7ffd9b76d4d0 fetched: true event_cycle: 113395236 LQ waiting: 
[SQ] entry: 22 instr_id: 47174127 address: 7ffd9b76d4c0 fetched: true event_cycle: 113395237 LQ waiting: 
[SQ] entry: 23 instr_id: 47174131 address: 7ffd9b76d188 fetched: true event_cycle: 113395238 LQ waiting: 
[SQ] entry: 24 instr_id: 47174138 address: 7ffd9b76c820 fetched: true event_cycle: 113395239 LQ waiting: 
[SQ] entry: 25 instr_id: 47174139 address: 7ffd9b76c770 fetched: true event_cycle: 113395285 LQ waiting: 
[SQ] entry: 26 instr_id: 47174140 address: 7ffd9b76cee8 fetched: true event_cycle: 113395243 LQ waiting: 
[SQ] entry: 27 instr_id: 47174146 address: 7ffd9b76c440 fetched: true event_cycle: 113395245 LQ waiting: 
[SQ] entry: 28 instr_id: 47174148 address: 7ffd9b76c550 fetched: true event_cycle: 113395245 LQ waiting: 
[SQ] entry: 29 instr_id: 47174150 address: 7ffd9b76c4d0 fetched: true event_cycle: 113395241 LQ waiting: 
[SQ] entry: 30 instr_id: 47174152 address: 7ffd9b76c4e0 fetched: true event_cycle: 113395246 LQ waiting: 
[SQ] entry: 31 instr_id: 47174154 address: 7ffd9b76c560 fetched: true event_cycle: 113395246 LQ waiting: 
[SQ] entry: 32 instr_id: 47174156 address: 7ffd9b76c710 fetched: true event_cycle: 113395243 LQ waiting: 
[SQ] entry: 33 instr_id: 47174159 address: 7ffd9b76c4f0 fetched: true event_cycle: 113395243 LQ waiting: 
[SQ] entry: 34 instr_id: 47174161 address: 7ffd9b76c7d0 fetched: true event_cycle: 113395254 LQ waiting: 
[SQ] entry: 35 instr_id: 47174163 address: 7ffd9b76c520 fetched: true event_cycle: 113395255 LQ waiting: 
[SQ] entry: 36 instr_id: 47174166 address: 7ffd9b76c720 fetched: true event_cycle: 113395252 LQ waiting: 
[SQ] entry: 37 instr_id: 47174168 address: 7ffd9b76c730 fetched: true event_cycle: 113395245 LQ waiting: 
[SQ] entry: 38 instr_id: 47174184 address: 7ffd9b76c700 fetched: true event_cycle: 113395255 LQ waiting: 
[SQ] entry: 39 instr_id: 47174197 address: 7ffd9b76c7a0 fetched: true event_cycle: 113395255 LQ waiting: 
[SQ] entry: 40 instr_id: 47174248 address: 7ffd9b76c810 fetched: true event_cycle: 113395263 LQ waiting: 
[SQ] entry: 41 instr_id: 47174261 address: 7ffd9b76ca80 fetched: true event_cycle: 113395266 LQ waiting: 
[SQ] entry: 42 instr_id: 47174269 address: 7ffd9b76ca70 fetched: true event_cycle: 113395267 LQ waiting: 

LLC MSHR empty
LLC RQ empty
LLC WQ empty
LLC PQ empty

cpu0_DTLB MSHR Entry
[cpu0_DTLB MSHR] entry: 0 instr_id: 47174089 address: 7fbcf22944b0 v_addr: 7fbcf22944b0 type: LOAD event_cycle: 18446744073709551615
[cpu0_DTLB MSHR] entry: 1 instr_id: 47174058 address: 7fbcf970d4b0 v_addr: 7fbcf970d4b0 type: LOAD event_cycle: 18446744073709551615
[cpu0_DTLB MSHR] entry: 2 instr_id: 47174060 address: 7fbd00b864b0 v_addr: 7fbd00b864b0 type: LOAD event_cycle: 18446744073709551615
[cpu0_DTLB MSHR] entry: 3 instr_id: 47174078 address: 7fbd07fff4b0 v_addr: 7fbd07fff4b0 type: LOAD event_cycle: 18446744073709551615
[cpu0_DTLB MSHR] entry: 4 instr_id: 47174084 address: 7fbcd50b04b0 v_addr: 7fbcd50b04b0 type: LOAD event_cycle: 18446744073709551615
[cpu0_DTLB MSHR] entry: 5 instr_id: 47173999 address: 7fbcabcad4a8 v_addr: 7fbcabcad4a8 type: LOAD event_cycle: 18446744073709551615
[cpu0_DTLB MSHR] entry: 6 instr_id: 47174002 address: 7fbca95da4a8 v_addr: 7fbca95da4a8 type: LOAD event_cycle: 18446744073709551615
[cpu0_DTLB MSHR] entry: 7 instr_id: 47174108 address: 7fbd7c78f4b0 v_addr: 7fbd7c78f4b0 type: LOAD event_cycle: 18446744073709551615
[cpu0_DTLB RQ]  instr_id: 47174063 address: 7fbd2c65c4b0 v_addr: 7fbd2c65c4b0 type: LOAD
[cpu0_DTLB RQ]  instr_id: 47174125 address: 7ffd9b76d0c8 v_addr: 7ffd9b76d0c8 type: LOAD
[cpu0_DTLB RQ]  instr_id: 47174005 address: 7fbca6f074a8 v_addr: 7fbca6f074a8 type: LOAD
[cpu0_DTLB RQ]  instr_id: 47174008 address: 7fbca21614a8 v_addr: 7fbca21614a8 type: LOAD
[cpu0_DTLB RQ]  instr_id: 47174011 address: 7fbc9fa8e4a8 v_addr: 7fbc9fa8e4a8 type: LOAD
[cpu0_DTLB RQ]  instr_id: 47174014 address: 7fbc9d3bb4a8 v_addr: 7fbc9d3bb4a8 type: LOAD
[cpu0_DTLB RQ]  instr_id: 47174016 address: 7fbc801d74a8 v_addr: 7fbc801d74a8 type: LOAD
[cpu0_DTLB RQ]  instr_id: 47174018 address: 7fbc7db044a8 v_addr: 7fbc7db044a8 type: LOAD
[cpu0_DTLB RQ]  instr_id: 47174020 address: 7fbc7b4314a8 v_addr: 7fbc7b4314a8 type: LOAD
[cpu0_DTLB RQ]  instr_id: 47174022 address: 7fbc8eac94a8 v_addr: 7fbc8eac94a8 type: LOAD
[cpu0_DTLB RQ]  instr_id: 47174025 address: 7fbc8c3f64a8 v_addr: 7fbc8c3f64a8 type: LOAD
[cpu0_DTLB RQ]  instr_id: 47174028 address: 7fbc89d234a8 v_addr: 7fbc89d234a8 type: LOAD
[cpu0_DTLB RQ]  instr_id: 47174030 address: 7fbc876504a8 v_addr: 7fbc876504a8 type: LOAD
[cpu0_DTLB RQ]  instr_id: 47174033 address: 7fbc84f7d4a8 v_addr: 7fbc84f7d4a8 type: LOAD
[cpu0_DTLB RQ]  instr_id: 47174036 address: 7fbc828aa4a8 v_addr: 7fbc828aa4a8 type: LOAD
[cpu0_DTLB RQ]  instr_id: 47174039 address: 7fbc9119c4a8 v_addr: 7fbc9119c4a8 type: LOAD
cpu0_DTLB WQ empty
cpu0_DTLB PQ empty

cpu0_ITLB MSHR empty
cpu0_ITLB RQ empty
cpu0_ITLB WQ empty
cpu0_ITLB PQ empty

cpu0_L1D MSHR empty
[cpu0_L1D RQ]  instr_id: 0 address: ed4868 v_addr: 7fbcf970d4b0 type: TRANSLATION
[cpu0_L1D RQ]  instr_id: 0 address: eb74a0 v_addr: 7fbcf22944b0 type: TRANSLATION
cpu0_L1D WQ empty
cpu0_L1D PQ empty
[cpu0_L1D RQ]  instr_id: 47174065 address: 7ffd9b76d158 v_addr: 7ffd9b76d158 type: LOAD
[cpu0_L1D RQ]  instr_id: 47174066 address: 7fbd251e34b0 v_addr: 7fbd251e34b0 type: LOAD
[cpu0_L1D RQ]  instr_id: 47174069 address: 7fbd1dd6a4b0 v_addr: 7fbd1dd6a4b0 type: LOAD
[cpu0_L1D RQ]  instr_id: 47174071 address: 7ffd9b76d138 v_addr: 7ffd9b76d138 type: LOAD
[cpu0_L1D RQ]  instr_id: 47174072 address: 7fbd168f14b0 v_addr: 7fbd168f14b0 type: LOAD
[cpu0_L1D RQ]  instr_id: 47174075 address: 7fbd0f4784b0 v_addr: 7fbd0f4784b0 type: LOAD
[cpu0_L1D RQ]  instr_id: 47174081 address: 7fbcdc5294b0 v_addr: 7fbcdc5294b0 type: LOAD
[cpu0_L1D RQ]  instr_id: 47174087 address: 7fbccdc374b0 v_addr: 7fbccdc374b0 type: LOAD
[cpu0_L1D RQ]  instr_id: 47174091 address: 7fbceae1b4b0 v_addr: 7fbceae1b4b0 type: LOAD
[cpu0_L1D RQ]  instr_id: 47174093 address: 7fbce39a24b0 v_addr: 7fbce39a24b0 type: LOAD
[cpu0_L1D RQ]  instr_id: 47174169 address: 7ffd9b76cda8 v_addr: 7ffd9b76cda8 type: LOAD
[cpu0_L1D RQ]  instr_id: 47174105 address: 7ffd9b76ced8 v_addr: 7ffd9b76ced8 type: LOAD
[cpu0_L1D RQ]  instr_id: 47174106 address: 7fbd50cb94b0 v_addr: 7fbd50cb94b0 type: LOAD
[cpu0_L1D RQ]  instr_id: 47174111 address: 7fbd815354b0 v_addr: 7fbd815354b0 type: LOAD
[cpu0_L1D RQ]  instr_id: 47174118 address: 7ffd9b76d040 v_addr: 7ffd9b76d040 type: LOAD
[cpu0_L1D RQ]  instr_id: 47174121 address: 7ffd9b76d0d8 v_addr: 7ffd9b76d0d8 type: LOAD
[cpu0_L1D RQ]  instr_id: 47174122 address: 7fbd498404b0 v_addr: 7fbd498404b0 type: LOAD
[cpu0_L1D RQ]  instr_id: 47174126 address: 7fbd423c74b0 v_addr: 7fbd423c74b0 type: LOAD
[cpu0_L1D RQ]  instr_id: 47174129 address: 7ffd9b76d0b8 v_addr: 7ffd9b76d0b8 type: LOAD
[cpu0_L1D RQ]  instr_id: 47174130 address: 7fbd3af4e4b0 v_addr: 7fbd3af4e4b0 type: LOAD
[cpu0_L1D RQ]  instr_id: 47174135 address: 7ffd9b76cc98 v_addr: 7ffd9b76cc98 type: LOAD
[cpu0_L1D RQ]  instr_id: 47174170 address: b081f8 v_addr: b081f8 type: LOAD
[cpu0_L1D RQ]  instr_id: 47174171 address: 7fbd00b864a0 v_addr: 7fbd00b864a0 type: LOAD
[cpu0_L1D RQ]  instr_id: 47174174 address: 7fbd00b4c830 v_addr: 7fbd00b4c830 type: LOAD
[cpu0_L1D RQ]  instr_id: 47174175 address: 7ffd9b76c2c0 v_addr: 7ffd9b76c2c0 type: LOAD
[cpu0_L1D RQ]  instr_id: 47174185 address: 7ffd9b76c508 v_addr: 7ffd9b76c508 type: LOAD
[cpu0_L1D RQ]  instr_id: 47174186 address: 7fbd00bc0130 v_addr: 7fbd00bc0130 type: LOAD
[cpu0_L1D RQ]  instr_id: 47174173 address: 7ffd9b76c2b8 v_addr: 7ffd9b76c2b8 type: LOAD
[cpu0_L1D RQ]  instr_id: 47174176 address: 7fbd00b85f50 v_addr: 7fbd00b85f50 type: LOAD
[cpu0_L1D RQ]  instr_id: 47174181 address: b07b00 v_addr: b07b00 type: LOAD
[cpu0_L1D RQ]  instr_id: 47174188 address: 7fbd00b86a10 v_addr: 7fbd00b86a10 type: LOAD
[cpu0_L1D RQ]  instr_id: 47174195 address: 7fbd00b864c0 v_addr: 7fbd00b864c0 type: LOAD
[cpu0_L1D RQ]  instr_id: 47174198 address: b07f50 v_addr: b07f50 type: LOAD
[cpu0_L1D RQ]  instr_id: 47174202 address: 7ffd9b76c450 v_addr: 7ffd9b76c450 type: LOAD
[cpu0_L1D RQ]  instr_id: 47174203 address: 7fbd00b859e8 v_addr: 7fbd00b859e8 type: LOAD
[cpu0_L1D RQ]  instr_id: 47174206 address: 7fbd00b12ba8 v_addr: 7fbd00b12ba8 type: LOAD
[cpu0_L1D RQ]  instr_id: 47174209 address: 7fbd00b86f68 v_addr: 7fbd00b86f68 type: LOAD
[cpu0_L1D RQ]  instr_id: 47174213 address: b08368 v_addr: b08368 type: LOAD
[cpu0_L1D RQ]  instr_id: 47174215 address: 7ffd9b76c318 v_addr: 7ffd9b76c318 type: LOAD
[cpu0_L1D RQ]  instr_id: 47174221 address: 7ffd9b76c278 v_addr: 7ffd9b76c278 type: LOAD
[cpu0_L1D RQ]  instr_id: 47174241 address: 7ffd9b76c788 v_addr: 7ffd9b76c788 type: LOAD
[cpu0_L1D RQ]  instr_id: 47174242 address: 7fbd00bf9db0 v_addr: 7fbd00bf9db0 type: LOAD
[cpu0_L1D RQ]  instr_id: 47174243 address: 7fbd00b86f80 v_addr: 7fbd00b86f80 type: LOAD
[cpu0_L1D RQ]  instr_id: 47174250 address: b07ac8 v_addr: b07ac8 type: LOAD
[cpu0_L1D RQ]  instr_id: 47174253 address: b085f0 v_addr: b085f0 type: LOAD
[cpu0_L1D RQ]  instr_id: 47174265 address: 7fbd00b85a00 v_addr: 7fbd00b85a00 type: LOAD
[cpu0_L1D RQ]  instr_id: 47174279 address: 7fbd00bbfbd0 v_addr: 7fbd00bbfbd0 type: LOAD
[cpu0_L1D RQ]  instr_id: 47174281 address: 7fbd00b4cd90 v_addr: 7fbd00b4cd90 type: LOAD
[cpu0_L1D RQ]  instr_id: 47174283 address: b08600 v_addr: b08600 type: LOAD
[cpu0_L1D RQ]  instr_id: 47174286 address: 7fbd00b4c2d0 v_addr: 7fbd00b4c2d0 type: LOAD
[cpu0_L1D RQ]  instr_id: 47174288 address: 7fbd00bc0690 v_addr: 7fbd00bc0690 type: LOAD
[cpu0_L1D RQ]  instr_id: 47174293 address: 7fbd00bf9850 v_addr: 7fbd00bf9850 type: LOAD
[cpu0_L1D RQ]  instr_id: 47174296 address: 7fbd00b13110 v_addr: 7fbd00b13110 type: LOAD
[cpu0_L1D RQ]  instr_id: 47174301 address: 7fbd00bbf670 v_addr: 7fbd00bbf670 type: LOAD
[cpu0_L1D RQ]  instr_id: 47174304 address: 7fbd00b4d2f0 v_addr: 7fbd00b4d2f0 type: LOAD
[cpu0_L1D RQ]  instr_id: 47174306 address: 7fbd00b4c840 v_addr: 7fbd00b4c840 type: LOAD
[cpu0_L1D RQ]  instr_id: 47174308 address: 7fbd00b12650 v_addr: 7fbd00b12650 type: LOAD
[cpu0_L1D RQ]  instr_id: 47174310 address: 7fbd00bfa310 v_addr: 7fbd00bfa310 type: LOAD
[cpu0_L1D RQ]  instr_id: 47174312 address: 7fbd00b4bd70 v_addr: 7fbd00b4bd70 type: LOAD
[cpu0_L1D RQ]  instr_id: 47174316 address: 7fbd00bc0bf0 v_addr: 7fbd00bc0bf0 type: LOAD
[cpu0_L1D RQ]  instr_id: 47174317 address: 7fbd00bc0140 v_addr: 7fbd00bc0140 type: LOAD
[cpu0_L1D RQ]  instr_id: 47174319 address: 7fbd00b120f0 v_addr: 7fbd00b120f0 type: LOAD
[cpu0_L1D WQ]  instr_id: 47174044 address: 7fbc9ace84a8 v_addr: 7fbc9ace84a8 type: WRITE
[cpu0_L1D WQ]  instr_id: 47174046 address: 7fbc986154a8 v_addr: 7fbc986154a8 type: WRITE
[cpu0_L1D WQ]  instr_id: 47174048 address: 7fbc95f424a8 v_addr: 7fbc95f424a8 type: WRITE
[cpu0_L1D WQ]  instr_id: 47174055 address: 7ffd9b76cef0 v_addr: 7ffd9b76cef0 type: WRITE
cpu0_L1D PQ empty

cpu0_L1I MSHR empty
cpu0_L1I RQ empty
cpu0_L1I WQ empty
cpu0_L1I PQ empty

cpu0_L2C MSHR empty
cpu0_L2C RQ empty
cpu0_L2C WQ empty
cpu0_L2C PQ empty
cpu0_L2C RQ empty
cpu0_L2C WQ empty
cpu0_L2C PQ empty

cpu0_STLB MSHR Entry
[cpu0_STLB MSHR] entry: 0 instr_id: 47174058 address: 7fbcf970d4b0 v_addr: 7fbcf970d4b0 type: LOAD event_cycle: 18446744073709551615
[cpu0_STLB MSHR] entry: 1 instr_id: 47174060 address: 7fbd00b864b0 v_addr: 7fbd00b864b0 type: LOAD event_cycle: 18446744073709551615
[cpu0_STLB MSHR] entry: 2 instr_id: 47174078 address: 7fbd07fff4b0 v_addr: 7fbd07fff4b0 type: LOAD event_cycle: 18446744073709551615
[cpu0_STLB MSHR] entry: 3 instr_id: 47174084 address: 7fbcd50b04b0 v_addr: 7fbcd50b04b0 type: LOAD event_cycle: 18446744073709551615
[cpu0_STLB MSHR] entry: 4 instr_id: 47174089 address: 7fbcf22944b0 v_addr: 7fbcf22944b0 type: LOAD event_cycle: 18446744073709551615
[cpu0_STLB MSHR] entry: 5 instr_id: 47173999 address: 7fbcabcad4a8 v_addr: 7fbcabcad4a8 type: LOAD event_cycle: 18446744073709551615
[cpu0_STLB MSHR] entry: 6 instr_id: 47174002 address: 7fbca95da4a8 v_addr: 7fbca95da4a8 type: LOAD event_cycle: 18446744073709551615
[cpu0_STLB MSHR] entry: 7 instr_id: 47174108 address: 7fbd7c78f4b0 v_addr: 7fbd7c78f4b0 type: LOAD event_cycle: 18446744073709551615
cpu0_STLB RQ empty
cpu0_STLB WQ empty
cpu0_STLB PQ empty
cpu0_STLB RQ empty
cpu0_STLB WQ empty
cpu0_STLB PQ empty
cpu0_STLB RQ empty
cpu0_STLB WQ empty
cpu0_STLB PQ empty


