WARNING: physical memory size is smaller than virtual memory size

*** ChampSim Multicore Out-of-Order Simulator ***

Warmup Instructions: 10000000
Simulation Instructions: 50000000
Number of CPUs: 1
Page size: 4096

CPU 0 Bimodal branch predictor
Basic BTB sets: 1024 ways: 8 indirect buffer size: 4096 RAS size: 64
Off-chip DRAM Size: 4 GiB Channels: 1 Width: 64-bit Data Rate: 3200 MT/s
Heartbeat CPU 0 instructions: 10000003 cycles: 2500044 heartbeat IPC: 3.99994 cumulative IPC: 3.99994 (Simulation time: 0 hr 0 min 16 sec) 
Warmup finished CPU 0 instructions: 10000003 cycles: 2500045 cumulative IPC: 3.99993 (Simulation time: 0 hr 0 min 16 sec) 

Warmup complete CPU 0 instructions: 10000003 cycles: 2500045 (Simulation time: 0 hr 0 min 16 sec) 

Heartbeat CPU 0 instructions: 20000003 cycles: 5103069 heartbeat IPC: 3.84169 cumulative IPC: 3.84169 (Simulation time: 0 hr 0 min 36 sec) 
Heartbeat CPU 0 instructions: 30000003 cycles: 7706583 heartbeat IPC: 3.84097 cumulative IPC: 3.84133 (Simulation time: 0 hr 0 min 56 sec) 
Heartbeat CPU 0 instructions: 40000001 cycles: 10309835 heartbeat IPC: 3.84135 cumulative IPC: 3.84134 (Simulation time: 0 hr 1 min 16 sec) 
Heartbeat CPU 0 instructions: 50000000 cycles: 12913605 heartbeat IPC: 3.84059 cumulative IPC: 3.84115 (Simulation time: 0 hr 1 min 36 sec) 
Heartbeat CPU 0 instructions: 60000000 cycles: 15517819 heartbeat IPC: 3.83994 cumulative IPC: 3.84091 (Simulation time: 0 hr 1 min 56 sec) 
Simulation finished CPU 0 instructions: 50000001 cycles: 13017776 cumulative IPC: 3.84091 (Simulation time: 0 hr 1 min 56 sec) 

Simulation complete CPU 0 instructions: 50000001 cycles: 13017776 (Simulation time: 0 hr 1 min 56 sec) 


ChampSim completed all CPUs

=== Simulation ===
CPU 0 runs traces/for_measure/638.imagick_s-10316B.champsimtrace.xz

Region of Interest Statistics

CPU 0 cumulative IPC: 3.84091 instructions: 50000001 cycles: 13017776
CPU 0 Branch Prediction Accuracy: 99.6979% MPKI: 0.31278 Average ROB Occupancy at Mispredict: 348.55
Branch type MPKI
BRANCH_DIRECT_JUMP: 2e-05
BRANCH_INDIRECT: 0
BRANCH_CONDITIONAL: 0.31276
BRANCH_DIRECT_CALL: 0
BRANCH_INDIRECT_CALL: 0
BRANCH_RETURN: 0

LLC TOTAL       ACCESS:       2410  HIT:        456  MISS:       1954
LLC LOAD         ACCESS:       2390  HIT:        454  MISS:       1936
LLC RFO          ACCESS:         17  HIT:          0  MISS:         17
LLC PREFETCH     ACCESS:          0  HIT:          0  MISS:          0
LLC WRITE        ACCESS:          0  HIT:          0  MISS:          0
LLC TRANSLATION  ACCESS:          3  HIT:          2  MISS:          1
LLC PREFETCH  REQUESTED:          0  ISSUED:          0  USEFUL:          0  USELESS:          0
LLC AVERAGE MISS LATENCY: 158.41 cycles
cpu0_DTLB TOTAL       ACCESS:    7793934  HIT:    7649260  MISS:     144674
cpu0_DTLB LOAD         ACCESS:    7793934  HIT:    7649260  MISS:     144674
cpu0_DTLB RFO          ACCESS:          0  HIT:          0  MISS:          0
cpu0_DTLB PREFETCH     ACCESS:          0  HIT:          0  MISS:          0
cpu0_DTLB WRITE        ACCESS:          0  HIT:          0  MISS:          0
cpu0_DTLB TRANSLATION  ACCESS:          0  HIT:          0  MISS:          0
cpu0_DTLB PREFETCH  REQUESTED:          0  ISSUED:          0  USEFUL:          0  USELESS:          0
cpu0_DTLB AVERAGE MISS LATENCY: 2.04992 cycles
cpu0_ITLB TOTAL       ACCESS:          0  HIT:          0  MISS:          0
cpu0_ITLB LOAD         ACCESS:          0  HIT:          0  MISS:          0
cpu0_ITLB RFO          ACCESS:          0  HIT:          0  MISS:          0
cpu0_ITLB PREFETCH     ACCESS:          0  HIT:          0  MISS:          0
cpu0_ITLB WRITE        ACCESS:          0  HIT:          0  MISS:          0
cpu0_ITLB TRANSLATION  ACCESS:          0  HIT:          0  MISS:          0
cpu0_ITLB PREFETCH  REQUESTED:          0  ISSUED:          0  USEFUL:          0  USELESS:          0
cpu0_ITLB AVERAGE MISS LATENCY: -nan cycles
cpu0_L1D TOTAL       ACCESS:    8604308  HIT:    6766894  MISS:    1837414
cpu0_L1D LOAD         ACCESS:    8601776  HIT:    6764772  MISS:    1837004
cpu0_L1D RFO          ACCESS:          0  HIT:          0  MISS:          0
cpu0_L1D PREFETCH     ACCESS:          0  HIT:          0  MISS:          0
cpu0_L1D WRITE        ACCESS:       2501  HIT:       2122  MISS:        379
cpu0_L1D TRANSLATION  ACCESS:         31  HIT:          0  MISS:         31
cpu0_L1D PREFETCH  REQUESTED:          0  ISSUED:          0  USEFUL:          0  USELESS:          0
cpu0_L1D AVERAGE MISS LATENCY: 2.26884 cycles
cpu0_L1I TOTAL       ACCESS:          0  HIT:          0  MISS:          0
cpu0_L1I LOAD         ACCESS:          0  HIT:          0  MISS:          0
cpu0_L1I RFO          ACCESS:          0  HIT:          0  MISS:          0
cpu0_L1I PREFETCH     ACCESS:          0  HIT:          0  MISS:          0
cpu0_L1I WRITE        ACCESS:          0  HIT:          0  MISS:          0
cpu0_L1I TRANSLATION  ACCESS:          0  HIT:          0  MISS:          0
cpu0_L1I PREFETCH  REQUESTED:          0  ISSUED:          0  USEFUL:          0  USELESS:          0
cpu0_L1I AVERAGE MISS LATENCY: -nan cycles
cpu0_L2C TOTAL       ACCESS:     379887  HIT:     377476  MISS:       2411
cpu0_L2C LOAD         ACCESS:     378939  HIT:     376548  MISS:       2391
cpu0_L2C RFO          ACCESS:        179  HIT:        162  MISS:         17
cpu0_L2C PREFETCH     ACCESS:          0  HIT:          0  MISS:          0
cpu0_L2C WRITE        ACCESS:        738  HIT:        738  MISS:          0
cpu0_L2C TRANSLATION  ACCESS:         31  HIT:         28  MISS:          3
cpu0_L2C PREFETCH  REQUESTED:          0  ISSUED:          0  USEFUL:          0  USELESS:          0
cpu0_L2C AVERAGE MISS LATENCY: 149.186 cycles
cpu0_STLB TOTAL       ACCESS:      36196  HIT:      36165  MISS:         31
cpu0_STLB LOAD         ACCESS:      36196  HIT:      36165  MISS:         31
cpu0_STLB RFO          ACCESS:          0  HIT:          0  MISS:          0
cpu0_STLB PREFETCH     ACCESS:          0  HIT:          0  MISS:          0
cpu0_STLB WRITE        ACCESS:          0  HIT:          0  MISS:          0
cpu0_STLB TRANSLATION  ACCESS:          0  HIT:          0  MISS:          0
cpu0_STLB PREFETCH  REQUESTED:          0  ISSUED:          0  USEFUL:          0  USELESS:          0
cpu0_STLB AVERAGE MISS LATENCY: 224.388 cycles

DRAM Statistics
Channel 0
 RQ ROW_BUFFER_HIT:        122
  ROW_BUFFER_MISS:       1832
 AVG DBUS CONGESTED CYCLE: -
 WQ ROW_BUFFER_HIT:          0
  ROW_BUFFER_MISS:          0  FULL:          0

